36
XYZ from PySCF
O          -2.13922       -2.19658        2.57872
C          -2.67065       -1.41071        1.61873
C          -3.85089       -0.72119        1.92914
C          -4.39845        0.10417        0.96084
Cl         -5.87296        0.98169        1.33382
C          -3.82991        0.27894       -0.30331
C          -2.65821       -0.41998       -0.60497
O          -2.00644       -0.31969       -1.78577
C          -2.51524        0.57318       -2.76579
C          -2.07204       -1.27729        0.35222
S          -0.60486       -2.20453       -0.00889
C           0.69994       -0.97380        0.09454
C           1.96631       -1.39191       -0.34587
C           3.02727       -0.48981       -0.27531
O           4.30152       -0.77520       -0.66912
C           4.56600       -2.07329       -1.17385
C           2.83794        0.81223        0.21503
C           1.56950        1.19926        0.63932
O           1.27229        2.43585        1.12900
C           2.32347        3.38214        1.22451
C           0.48808        0.30368        0.58746
H          -1.31649       -2.58391        2.21245
H          -4.30069       -0.83597        2.90677
H          -4.29847        0.94283       -1.01571
H          -1.82799        0.50585       -3.60980
H          -2.53629        1.60358       -2.39030
H          -3.52221        0.28077       -3.08841
H           2.09779       -2.39231       -0.73860
H           3.98012       -2.27966       -2.07906
H           4.35368       -2.84670       -0.42419
H           5.62919       -2.08885       -1.41929
H           3.69260        1.47479        0.24289
H           3.12178        3.02943        1.89038
H           2.75179        3.60765        0.23909
H           1.87626        4.28613        1.64122
H          -0.48353        0.63341        0.93278