36
XYZ from PySCF
O          -1.81999       -1.57221       -3.16412
C          -2.30180       -1.43341       -1.91094
C          -3.02357       -2.50884       -1.37363
C          -3.50019       -2.39266       -0.07819
Cl         -4.39620       -3.73361        0.61707
C          -3.29493       -1.25810        0.71124
C          -2.58338       -0.18838        0.16125
O          -2.30385        0.95198        0.83146
C          -2.73007        1.06765        2.18102
C          -2.08517       -0.26491       -1.15808
S          -1.17570        1.07395       -1.88502
C           0.41181        0.96505       -1.04867
C           0.80496       -0.19513       -0.36951
C           2.05631       -0.21287        0.24571
O           2.54055       -1.27760        0.94679
C           1.71457       -2.42575        1.05920
C           2.91644        0.89410        0.17466
C           2.50332        2.03082       -0.51686
O           3.25291        3.16143       -0.64588
C           4.53437        3.18033       -0.03964
C           1.23956        2.07683       -1.12857
H          -1.32155       -0.75403       -3.37398
H          -3.18408       -3.39991       -1.96659
H          -3.68682       -1.22603        1.71791
H          -3.82307        1.01854        2.26056
H          -2.28261        0.28524        2.80643
H          -2.38314        2.04568        2.51585
H           0.14101       -1.04644       -0.32647
H           2.27679       -3.14163        1.66093
H           0.76645       -2.19108        1.56042
H           1.49988       -2.86419        0.07615
H           3.87709        0.82614        0.66742
H           5.18587        2.39989       -0.45378
H           4.95695        4.16152       -0.26213
H           4.46574        3.05056        1.04833
H           0.93509        2.98436       -1.63790
