36
XYZ from PySCF
O          -1.81566       -1.56773       -3.14589
C          -2.30036       -1.43150       -1.89360
C          -3.01983       -2.50945       -1.35834
C          -3.49945       -2.39551       -0.06376
Cl         -4.39295       -3.73956        0.62873
C          -3.29939       -1.26082        0.72674
C          -2.58973       -0.18868        0.17891
O          -2.31488        0.95192        0.85067
C          -2.74388        1.06498        2.19959
C          -2.08882       -0.26278       -1.13950
S          -1.18332        1.07990       -1.86422
C           0.40721        0.97012       -1.03336
C           0.80075       -0.18887       -0.35262
C           2.05410       -0.20696        0.25865
O           2.53925       -1.27100        0.96016
C           1.71234       -2.41797        1.07719
C           2.91533        0.89875        0.18271
C           2.50158        2.03448       -0.51022
O           3.25219        3.16389       -0.64402
C           4.53554        3.18256       -0.04182
C           1.23622        2.08063       -1.11841
H          -1.32179       -0.74657       -3.35504
H          -3.17673       -3.40056       -1.95220
H          -3.69307       -1.23068        1.73277
H          -3.83690        1.01317        2.27705
H          -2.29571        0.28294        2.82495
H          -2.39990        2.04345        2.53616
H           0.13565       -1.03904       -0.30514
H           2.27594       -3.13376        1.67773
H           0.76640       -2.18152        1.58172
H           1.49337       -2.85745        0.09556
H           3.87748        0.83063        0.67252
H           5.18486        2.40049       -0.45634
H           4.95857        4.16279       -0.26769
H           4.47020        3.05520        1.04663
H           0.93184        2.98690       -1.63004
